[Format]      =  4.0
[Frequency]   =  0
[Precision]   =  1e-008
[MinAngle]    =  10
[DoSmartMesh] =  0
[Depth]       =  0.14999999999999999
[LengthUnits] =  meters
[ProblemType] =  planar
[Coordinates] =  cartesian
[ACSolver]    =  0
[PrevType]    =  0
[PrevSoln]    =  ""
[Comment]     =  "Add comments here."
[PointProps]   = 0
[BdryProps]   = 15
  <BeginBdry>
    <BdryName> = "Azero"
    <BdryType> = 0
    <A_0> = 0
    <A_1> = 0
    <A_2> = 0
    <Phi> = 0
    <c0> = 0
    <c0i> = 0
    <c1> = 0
    <c1i> = 0
    <Mu_ssd> = 0
    <Sigma_ssd> = 0
    <innerangle> = 0
    <outerangle> = 0
  <EndBdry>
  <BeginBdry>
    <BdryName> = "sPA1"
    <BdryType> = 5
    <A_0> = 0
    <A_1> = 0
    <A_2> = 0
    <Phi> = 0
    <c0> = 0
    <c0i> = 0
    <c1> = 0
    <c1i> = 0
    <Mu_ssd> = 0
    <Sigma_ssd> = 0
    <innerangle> = 0
    <outerangle> = 0
  <EndBdry>
  <BeginBdry>
    <BdryName> = "sPA2"
    <BdryType> = 5
    <A_0> = 0
    <A_1> = 0
    <A_2> = 0
    <Phi> = 0
    <c0> = 0
    <c0i> = 0
    <c1> = 0
    <c1i> = 0
    <Mu_ssd> = 0
    <Sigma_ssd> = 0
    <innerangle> = 0
    <outerangle> = 0
  <EndBdry>
  <BeginBdry>
    <BdryName> = "sPA3"
    <BdryType> = 5
    <A_0> = 0
    <A_1> = 0
    <A_2> = 0
    <Phi> = 0
    <c0> = 0
    <c0i> = 0
    <c1> = 0
    <c1i> = 0
    <Mu_ssd> = 0
    <Sigma_ssd> = 0
    <innerangle> = 0
    <outerangle> = 0
  <EndBdry>
  <BeginBdry>
    <BdryName> = "sPA4"
    <BdryType> = 5
    <A_0> = 0
    <A_1> = 0
    <A_2> = 0
    <Phi> = 0
    <c0> = 0
    <c0i> = 0
    <c1> = 0
    <c1i> = 0
    <Mu_ssd> = 0
    <Sigma_ssd> = 0
    <innerangle> = 0
    <outerangle> = 0
  <EndBdry>
  <BeginBdry>
    <BdryName> = "sPA5"
    <BdryType> = 5
    <A_0> = 0
    <A_1> = 0
    <A_2> = 0
    <Phi> = 0
    <c0> = 0
    <c0i> = 0
    <c1> = 0
    <c1i> = 0
    <Mu_ssd> = 0
    <Sigma_ssd> = 0
    <innerangle> = 0
    <outerangle> = 0
  <EndBdry>
  <BeginBdry>
    <BdryName> = "rPA1"
    <BdryType> = 5
    <A_0> = 0
    <A_1> = 0
    <A_2> = 0
    <Phi> = 0
    <c0> = 0
    <c0i> = 0
    <c1> = 0
    <c1i> = 0
    <Mu_ssd> = 0
    <Sigma_ssd> = 0
    <innerangle> = 0
    <outerangle> = 0
  <EndBdry>
  <BeginBdry>
    <BdryName> = "rPA2"
    <BdryType> = 5
    <A_0> = 0
    <A_1> = 0
    <A_2> = 0
    <Phi> = 0
    <c0> = 0
    <c0i> = 0
    <c1> = 0
    <c1i> = 0
    <Mu_ssd> = 0
    <Sigma_ssd> = 0
    <innerangle> = 0
    <outerangle> = 0
  <EndBdry>
  <BeginBdry>
    <BdryName> = "rPA3"
    <BdryType> = 5
    <A_0> = 0
    <A_1> = 0
    <A_2> = 0
    <Phi> = 0
    <c0> = 0
    <c0i> = 0
    <c1> = 0
    <c1i> = 0
    <Mu_ssd> = 0
    <Sigma_ssd> = 0
    <innerangle> = 0
    <outerangle> = 0
  <EndBdry>
  <BeginBdry>
    <BdryName> = "rPA4"
    <BdryType> = 5
    <A_0> = 0
    <A_1> = 0
    <A_2> = 0
    <Phi> = 0
    <c0> = 0
    <c0i> = 0
    <c1> = 0
    <c1i> = 0
    <Mu_ssd> = 0
    <Sigma_ssd> = 0
    <innerangle> = 0
    <outerangle> = 0
  <EndBdry>
  <BeginBdry>
    <BdryName> = "rPA5"
    <BdryType> = 5
    <A_0> = 0
    <A_1> = 0
    <A_2> = 0
    <Phi> = 0
    <c0> = 0
    <c0i> = 0
    <c1> = 0
    <c1i> = 0
    <Mu_ssd> = 0
    <Sigma_ssd> = 0
    <innerangle> = 0
    <outerangle> = 0
  <EndBdry>
  <BeginBdry>
    <BdryName> = "gPA1"
    <BdryType> = 5
    <A_0> = 0
    <A_1> = 0
    <A_2> = 0
    <Phi> = 0
    <c0> = 0
    <c0i> = 0
    <c1> = 0
    <c1i> = 0
    <Mu_ssd> = 0
    <Sigma_ssd> = 0
    <innerangle> = 0
    <outerangle> = 0
  <EndBdry>
  <BeginBdry>
    <BdryName> = "gPA2"
    <BdryType> = 5
    <A_0> = 0
    <A_1> = 0
    <A_2> = 0
    <Phi> = 0
    <c0> = 0
    <c0i> = 0
    <c1> = 0
    <c1i> = 0
    <Mu_ssd> = 0
    <Sigma_ssd> = 0
    <innerangle> = 0
    <outerangle> = 0
  <EndBdry>
  <BeginBdry>
    <BdryName> = "gPA3"
    <BdryType> = 5
    <A_0> = 0
    <A_1> = 0
    <A_2> = 0
    <Phi> = 0
    <c0> = 0
    <c0i> = 0
    <c1> = 0
    <c1i> = 0
    <Mu_ssd> = 0
    <Sigma_ssd> = 0
    <innerangle> = 0
    <outerangle> = 0
  <EndBdry>
  <BeginBdry>
    <BdryName> = "gSB"
    <BdryType> = 7
    <A_0> = 0
    <A_1> = 0
    <A_2> = 0
    <Phi> = 0
    <c0> = 0
    <c0i> = 0
    <c1> = 0
    <c1i> = 0
    <Mu_ssd> = 0
    <Sigma_ssd> = 0
    <innerangle> = 0
    <outerangle> = 0
  <EndBdry>
[BlockProps]  = 6
  <BeginBlock>
    <BlockName> = "Air"
    <Mu_x> = 1
    <Mu_y> = 1
    <H_c> = 0
    <H_cAngle> = 0
    <J_re> = 0
    <J_im> = 0
    <Sigma> = 0
    <d_lam> = 0
    <Phi_h> = 0
    <Phi_hx> = 0
    <Phi_hy> = 0
    <LamType> = 0
    <LamFill> = 1
    <NStrands> = 0
    <WireD> = 0
    <BHPoints> = 0
  <EndBlock>
  <BeginBlock>
    <BlockName> = "Cu"
    <Mu_x> = 1
    <Mu_y> = 1
    <H_c> = 0
    <H_cAngle> = 0
    <J_re> = 0
    <J_im> = 0
    <Sigma> = 56
    <d_lam> = 0
    <Phi_h> = 0
    <Phi_hx> = 0
    <Phi_hy> = 0
    <LamType> = 0
    <LamFill> = 1
    <NStrands> = 0
    <WireD> = 0
    <BHPoints> = 0
  <EndBlock>
  <BeginBlock>
    <BlockName> = "Al"
    <Mu_x> = 1
    <Mu_y> = 1
    <H_c> = 0
    <H_cAngle> = 0
    <J_re> = 0
    <J_im> = 0
    <Sigma> = 35
    <d_lam> = 0
    <Phi_h> = 0
    <Phi_hx> = 0
    <Phi_hy> = 0
    <LamType> = 0
    <LamFill> = 1
    <NStrands> = 0
    <WireD> = 0
    <BHPoints> = 0
  <EndBlock>
  <BeginBlock>
    <BlockName> = "Cu_NC"
    <Mu_x> = 1
    <Mu_y> = 1
    <H_c> = 0
    <H_cAngle> = 0
    <J_re> = 0
    <J_im> = 0
    <Sigma> = 0
    <d_lam> = 0
    <Phi_h> = 0
    <Phi_hx> = 0
    <Phi_hy> = 0
    <LamType> = 0
    <LamFill> = 1
    <NStrands> = 0
    <WireD> = 0
    <BHPoints> = 0
  <EndBlock>
  <BeginBlock>
    <BlockName> = "isovac_330_35A"
    <Mu_x> = 4082
    <Mu_y> = 4082
    <H_c> = 0
    <H_cAngle> = 0
    <J_re> = 0
    <J_im> = 0
    <Sigma> = 0
    <d_lam> = 0
    <Phi_h> = 0
    <Phi_hx> = 0
    <Phi_hy> = 0
    <LamType> = 0
    <LamFill> = 1
    <NStrands> = 0
    <WireD> = 0
    <BHPoints> = 34
      0	0
      0.10003769911184308	30
      0.15004398229715024	35
      0.200049008845396	39
      0.25005403539364174	43
      0.30006031857894894	48
      0.35006534512719467	52
      0.40007037167544041	56
      0.45007539822368614	60
      0.50008042477193193	64
      0.55008545132017772	68
      0.6000904778684234	72
      0.65009550441666919	76
      0.70010178760197628	81
      0.75010681415022207	85
      0.80011309733552927	90
      0.85012063715789787	96
      0.90012943361732789	103
      1.0001507964473724	120
      1.0501646194550482	131
      1.1001822123739082	145
      1.1502035752039526	162
      1.2002324778563656	185
      1.2502739468793931	218
      1.3003292389100962	262
      1.3504159468673353	331
      1.4005994158783048	477
      1.4509676105373057	770
      1.5016336281798668	1300
      1.5526917165855958	2142
      1.6041393624803699	3294
      1.6559325835670389	4721
      1.7079645656953808	6338
      4	1830281.8455567963
  <EndBlock>
  <BeginBlock>
    <BlockName> = "Steel_1010"
    <Mu_x> = 2097
    <Mu_y> = 2097
    <H_c> = 0
    <H_cAngle> = 0
    <J_re> = 0
    <J_im> = 0
    <Sigma> = 0
    <d_lam> = 0
    <Phi_h> = 0
    <Phi_hx> = 0
    <Phi_hy> = 0
    <LamType> = 0
    <LamFill> = 1
    <NStrands> = 0
    <WireD> = 0
    <BHPoints> = 38
      0	0
      0.21186199999999999	79.577472
      0.26566499999999998	100.182101
      0.33237699999999998	126.121793
      0.414377	158.77793
      0.51381100000000002	199.88957099999999
      0.63189899999999999	251.646061
      0.76778400000000002	316.80362000000002
      0.917018	398.83212800000001
      1.0703530000000001	502.09990099999999
      1.2142550000000001	632.10632499999997
      1.3346370000000001	795.77471500000001
      1.4229810000000001	1001.821011
      1.480634	1261.2179289999999
      1.5172140000000001	1587.779301
      1.5445150000000001	1998.89571
      1.571296	2516.4606050000002
      1.6020490000000001	3168.036204
      1.638404	3988.3212819999999
      1.68049	5020.9990129999996
      1.727311	6321.0632500000002
      1.776659	7957.747155
      1.8254010000000001	10018.210114
      1.870557	12612.179292999999
      1.910809	15877.793009999999
      1.947222	19988.957103000001
      1.9823280000000001	25164.606051999999
      2.0182519999999999	31680.362036999999
      2.0553979999999998	39883.212823000002
      2.0925449999999999	50209.990126999997
      2.1280950000000001	63210.632496999999
      2.1616119999999999	79577.471546000001
      2.1946439999999998	100182.101136
      2.2303389999999998	126121.79292599999
      2.272386	158777.930096
      2.3242820000000002	199889.57102999999
      2.3893559999999998	251646.06052200001
      4	1533353.7659252603
  <EndBlock>
[CircuitProps]  = 21
  <BeginCircuit>
    <CircuitName> = "Islot1"
    <TotalAmps_re> = 0
    <TotalAmps_im> = 0
    <CircuitType> = 0
  <EndCircuit>
  <BeginCircuit>
    <CircuitName> = "Islot2"
    <TotalAmps_re> = 0
    <TotalAmps_im> = 0
    <CircuitType> = 0
  <EndCircuit>
  <BeginCircuit>
    <CircuitName> = "Islot3"
    <TotalAmps_re> = 0
    <TotalAmps_im> = 0
    <CircuitType> = 0
  <EndCircuit>
  <BeginCircuit>
    <CircuitName> = "Islot4"
    <TotalAmps_re> = 0
    <TotalAmps_im> = 0
    <CircuitType> = 0
  <EndCircuit>
  <BeginCircuit>
    <CircuitName> = "Islot5"
    <TotalAmps_re> = 0
    <TotalAmps_im> = 0
    <CircuitType> = 0
  <EndCircuit>
  <BeginCircuit>
    <CircuitName> = "Islot6"
    <TotalAmps_re> = 0
    <TotalAmps_im> = 0
    <CircuitType> = 0
  <EndCircuit>
  <BeginCircuit>
    <CircuitName> = "Islot7"
    <TotalAmps_re> = 0
    <TotalAmps_im> = 0
    <CircuitType> = 0
  <EndCircuit>
  <BeginCircuit>
    <CircuitName> = "Islot8"
    <TotalAmps_re> = 0
    <TotalAmps_im> = 0
    <CircuitType> = 0
  <EndCircuit>
  <BeginCircuit>
    <CircuitName> = "Islot9"
    <TotalAmps_re> = 0
    <TotalAmps_im> = 0
    <CircuitType> = 0
  <EndCircuit>
  <BeginCircuit>
    <CircuitName> = "Islot10"
    <TotalAmps_re> = 0
    <TotalAmps_im> = 0
    <CircuitType> = 0
  <EndCircuit>
  <BeginCircuit>
    <CircuitName> = "Islot11"
    <TotalAmps_re> = 0
    <TotalAmps_im> = 0
    <CircuitType> = 0
  <EndCircuit>
  <BeginCircuit>
    <CircuitName> = "Islot12"
    <TotalAmps_re> = 0
    <TotalAmps_im> = 0
    <CircuitType> = 0
  <EndCircuit>
  <BeginCircuit>
    <CircuitName> = "IslotR1"
    <TotalAmps_re> = 0
    <TotalAmps_im> = 0
    <CircuitType> = 0
  <EndCircuit>
  <BeginCircuit>
    <CircuitName> = "IslotR2"
    <TotalAmps_re> = 0
    <TotalAmps_im> = 0
    <CircuitType> = 0
  <EndCircuit>
  <BeginCircuit>
    <CircuitName> = "IslotR3"
    <TotalAmps_re> = 0
    <TotalAmps_im> = 0
    <CircuitType> = 0
  <EndCircuit>
  <BeginCircuit>
    <CircuitName> = "IslotR4"
    <TotalAmps_re> = 0
    <TotalAmps_im> = 0
    <CircuitType> = 0
  <EndCircuit>
  <BeginCircuit>
    <CircuitName> = "IslotR5"
    <TotalAmps_re> = 0
    <TotalAmps_im> = 0
    <CircuitType> = 0
  <EndCircuit>
  <BeginCircuit>
    <CircuitName> = "IslotR6"
    <TotalAmps_re> = 0
    <TotalAmps_im> = 0
    <CircuitType> = 0
  <EndCircuit>
  <BeginCircuit>
    <CircuitName> = "IslotR7"
    <TotalAmps_re> = 0
    <TotalAmps_im> = 0
    <CircuitType> = 0
  <EndCircuit>
  <BeginCircuit>
    <CircuitName> = "IslotR8"
    <TotalAmps_re> = 0
    <TotalAmps_im> = 0
    <CircuitType> = 0
  <EndCircuit>
  <BeginCircuit>
    <CircuitName> = "IslotR9"
    <TotalAmps_re> = 0
    <TotalAmps_im> = 0
    <CircuitType> = 0
  <EndCircuit>
[NumPoints] = 364
0.044615018761821466	0.0058736786499023206	0	1000
0.044771147843571148	0.0045325843366774872	0	1000
0.045197659289865903	0.0045887356338318031	0	1000
0.045041340052212206	0.0059298049125569427	0	1000
0.044999999999999998	0	0	1000
0.048485120909990735	0	0	1000
0.048420625250572939	0.0024999999999999996	0	1000
0.059289543766165055	0.0025000000000000005	0	1000
0.061780700540604798	0.0052100902786911228	0	1000
0.061469581405176242	0.0080926239176431977	0	1000
0.059342227797749558	0	0	1000
0.086500000000000007	0	0	1000
0.085759980508834599	0.011290515627034462	0	1000
0.044418727124577013	0.0072094854623867763	0	1000
0.044845238570871769	0.0072656367595410921	0	1000
0.04346666218300807	0.011646857029613432	0	1000
0.046833030477708183	0.012548872695604063	0	1000
0.047417780067349292	0.01011736542489762	0	1000
0.057916349165391158	0.012930448536400279	0	1000
0.06102404480922994	0.010957461162198756	0	1000
0.057320190419375361	0.015358898732869804	0	1000
0.083552583974004405	0.022387847401368042	0	1000
0.041574578963007904	0.017220754456429038	0	1000
0.042072488824845988	0.015965766003646957	0	1000
0.042469934220919249	0.016130393277003247	0	1000
0.041971847161987763	0.017385308332346024	0	1000
0.046123684841836689	0.014946994556342963	0	1000
0.056622253939878561	0.017760077667845622	0	1000
0.058327103627572416	0.021022582677169485	0	1000
0.057280531015699777	0.023726372806635559	0	1000
0.079915579562226308	0.033102116899580265	0	1000
0.041039243557460248	0.018460240741427433	0	1000
0.041436688953533515	0.018624868014783719	0	1000
0.038971143170299732	0.022499999999999996	0	1000
0.041989346413612051	0.024242560454995364	0	1000
0.043183491534122417	0.022045249115825373	0	1000
0.052596251080288238	0.027479708373621427	0	1000
0.05610870127110832	0.026378279732945539	0	1000
0.051391876790014203	0.029671113898874779	0	1000
0.074911197427353943	0.043249999999999997	0	1000
0.035700900313105584	0.027394264305392425	0	1000
0.036506659220782764	0.026310907102143712	0	1000
0.036847953319701705	0.026572791275082178	0	1000
0.036042042249430813	0.027656031719866175	0	1000
0.040683491534122415	0.026375376134747563	0	1000
0.050096251080288243	0.031809835392543624	0	1000
0.050898610992417201	0.035402420807659256	0	1000
0.049187907098056587	0.037743208598540676	0	1000
0.068625063935191855	0.052657863609254327	0	1000
0.034863003362459226	0.028452961120930053	0	1000
0.035204297461378167	0.028714845293868516	0	1000
0.031819805153394637	0.03181980515339463	0	1000
0.03428415778210412	0.034284157782104113	0	1000
0.036006319416939069	0.032470785511006323	0	1000
0.043691805403478279	0.040156271497545533	0	1000
0.04736964246537366	0.040001462132060447	0	1000
0.041961291686505559	0.041961291686505552	0	1000
0.061164736572636366	0.061164736572636352	0	1000
0.027394264305392435	0.035700900313105577	0	1000
0.028452961120930056	0.034863003362459212	0	1000
0.028714845293868523	0.035204297461378153	0	1000
0.027656031719866189	0.036042042249430806	0	1000
0.032470785511006336	0.036006319416939062	0	1000
0.040156271497545547	0.043691805403478272	0	1000
0.040001462132060468	0.04736964246537366	0	1000
0.037743208598540683	0.049187907098056573	0	1000
0.052657863609254354	0.068625063935191841	0	1000
0.026310907102143725	0.036506659220782764	0	1000
0.026572791275082192	0.036847953319701705	0	1000
0.02250000000000001	0.038971143170299732	0	1000
0.024242560454995378	0.041989346413612051	0	1000
0.026375376134747573	0.040683491534122415	0	1000
0.031809835392543631	0.050096251080288229	0	1000
0.03540242080765927	0.050898610992417194	0	1000
0.029671113898874793	0.051391876790014203	0	1000
0.043250000000000018	0.074911197427353943	0	1000
0.017220754456429045	0.041574578963007897	0	1000
0.018460240741427436	0.041039243557460241	0	1000
0.018624868014783726	0.041436688953533501	0	1000
0.017385308332346031	0.041971847161987756	0	1000
0.02204524911582538	0.043183491534122417	0	1000
0.027479708373621438	0.052596251080288238	0	1000
0.026378279732945549	0.05610870127110832	0	1000
0.023726372806635573	0.057280531015699777	0	1000
0.033102116899580272	0.079915579562226294	0	1000
0.015965766003646964	0.042072488824845995	0	1000
0.016130393277003253	0.042469934220919249	0	1000
0.01164685702961344	0.04346666218300807	0	1000
0.01254887269560407	0.046833030477708183	0	1000
0.014946994556342973	0.046123684841836682	0	1000
0.017760077667845632	0.056622253939878554	0	1000
0.021022582677169496	0.058327103627572409	0	1000
0.015358898732869813	0.057320190419375354	0	1000
0.022387847401368056	0.083552583974004391	0	1000
0.0058736786499023318	0.044615018761821459	0	1000
0.0072094854623867858	0.044418727124577007	0	1000
0.0072656367595411026	0.044845238570871762	0	1000
0.0059298049125569539	0.045041340052212206	0	1000
0.010117365424897634	0.047417780067349286	0	1000
0.012930448536400293	0.057916349165391158	0	1000
0.01095746116219877	0.06102404480922994	0	1000
0.0080926239176432099	0.061469581405176235	0	1000
0.011290515627034481	0.085759980508834585	0	1000
0.0045325843366774967	0.044771147843571155	0	1000
0.0045887356338318161	0.045197659289865903	0	1000
1.214306433183765e-017	0.044999999999999998	0	1000
1.0408340855860843e-017	0.048485120909990735	0	1000
0.0025000000000000126	0.048420625250572939	0	1000
0.0025000000000000144	0.059289543766165048	0	1000
0.0052100902786911367	0.061780700540604791	0	1000
1.3877787807814457e-017	0.059342227797749558	0	1000
2.0816681711721685e-017	0.086499999999999994	0	1000
-0.0058736786499023075	0.044615018761821466	0	1000
-0.0045325843366774742	0.044771147843571148	0	1000
-0.00458873563383179	0.045197659289865903	0	1000
-0.0059298049125569297	0.045041340052212206	0	1000
-0.0024999999999999857	0.048420625250572939	0	1000
-0.0024999999999999836	0.059289543766165055	0	1000
-0.0052100902786911055	0.061780700540604798	0	1000
-0.0080926239176431804	0.061469581405176242	0	1000
-0.011290515627034437	0.085759980508834599	0	1000
-0.0072094854623867633	0.044418727124577013	0	1000
-0.0072656367595410791	0.044845238570871769	0	1000
-0.011646857029613419	0.04346666218300807	0	1000
-0.012548872695604049	0.04683303047770819	0	1000
-0.010117365424897606	0.047417780067349292	0	1000
-0.012930448536400263	0.057916349165391165	0	1000
-0.010957461162198739	0.06102404480922994	0	1000
-0.015358898732869788	0.057320190419375368	0	1000
-0.022387847401368018	0.083552583974004405	0	1000
-0.017220754456429024	0.04157457896300791	0	1000
-0.01596576600364694	0.042072488824845995	0	1000
-0.016130393277003229	0.042469934220919256	0	1000
-0.017385308332346014	0.041971847161987763	0	1000
-0.014946994556342947	0.046123684841836696	0	1000
-0.017760077667845604	0.056622253939878568	0	1000
-0.021022582677169464	0.05832710362757243	0	1000
-0.023726372806635542	0.057280531015699784	0	1000
-0.033102116899580231	0.079915579562226322	0	1000
-0.018460240741427419	0.041039243557460262	0	1000
-0.018624868014783708	0.041436688953533515	0	1000
-0.022499999999999985	0.038971143170299746	0	1000
-0.02424256045499535	0.041989346413612065	0	1000
-0.022045249115825356	0.043183491534122424	0	1000
-0.02747970837362141	0.052596251080288252	0	1000
-0.026378279732945521	0.056108701271108327	0	1000
-0.029671113898874758	0.051391876790014217	0	1000
-0.043249999999999969	0.074911197427353957	0	1000
-0.027394264305392418	0.035700900313105584	0	1000
-0.026310907102143705	0.036506659220782764	0	1000
-0.026572791275082171	0.036847953319701705	0	1000
-0.027656031719866168	0.036042042249430813	0	1000
-0.026375376134747556	0.040683491534122415	0	1000
-0.03180983539254361	0.050096251080288243	0	1000
-0.035402420807659242	0.050898610992417201	0	1000
-0.037743208598540662	0.049187907098056587	0	1000
-0.052657863609254313	0.068625063935191855	0	1000
-0.028452961120930046	0.034863003362459226	0	1000
-0.028714845293868509	0.035204297461378167	0	1000
-0.031819805153394623	0.031819805153394637	0	1000
-0.034284157782104106	0.03428415778210412	0	1000
-0.032470785511006316	0.036006319416939069	0	1000
-0.040156271497545519	0.043691805403478286	0	1000
-0.04000146213206044	0.04736964246537366	0	1000
-0.041961291686505545	0.041961291686505559	0	1000
-0.061164736572636338	0.061164736572636366	0	1000
-0.035700900313105563	0.027394264305392445	0	1000
-0.034863003362459198	0.028452961120930074	0	1000
-0.03520429746137814	0.02871484529386854	0	1000
-0.036042042249430799	0.027656031719866199	0	1000
-0.036006319416939048	0.032470785511006343	0	1000
-0.043691805403478251	0.040156271497545561	0	1000
-0.047369642465373639	0.040001462132060482	0	1000
-0.049187907098056552	0.037743208598540703	0	1000
-0.068625063935191813	0.052657863609254368	0	1000
-0.03650665922078275	0.026310907102143736	0	1000
-0.036847953319701685	0.026572791275082209	0	1000
-0.038971143170299725	0.02250000000000002	0	1000
-0.041989346413612044	0.024242560454995392	0	1000
-0.040683491534122394	0.026375376134747594	0	1000
-0.050096251080288222	0.031809835392543652	0	1000
-0.050898610992417173	0.035402420807659291	0	1000
-0.051391876790014182	0.02967111389887481	0	1000
-0.074911197427353915	0.043250000000000045	0	1000
-0.041574578963007897	0.017220754456429056	0	1000
-0.041039243557460241	0.018460240741427447	0	1000
-0.041436688953533495	0.018624868014783736	0	1000
-0.041971847161987749	0.017385308332346042	0	1000
-0.04318349153412241	0.02204524911582539	0	1000
-0.052596251080288231	0.027479708373621452	0	1000
-0.056108701271108313	0.026378279732945563	0	1000
-0.05728053101569977	0.023726372806635587	0	1000
-0.079915579562226294	0.033102116899580293	0	1000
-0.042072488824845988	0.015965766003646974	0	1000
-0.042469934220919249	0.016130393277003264	0	1000
-0.043466662183008063	0.011646857029613451	0	1000
-0.046833030477708183	0.012548872695604082	0	1000
-0.046123684841836682	0.014946994556342985	0	1000
-0.056622253939878547	0.017760077667845646	0	1000
-0.058327103627572402	0.021022582677169509	0	1000
-0.057320190419375354	0.015358898732869828	0	1000
-0.083552583974004405	0.02238784740136808	0	1000
-0.044615018761821459	0.0058736786499023336	0	1000
-0.044418727124577007	0.0072094854623867876	0	1000
-0.044845238570871762	0.007265636759541106	0	1000
-0.045041340052212206	0.0059298049125569574	0	1000
-0.047417780067349286	0.010117365424897636	0	1000
-0.057916349165391158	0.012930448536400296	0	1000
-0.06102404480922994	0.010957461162198773	0	1000
-0.061469581405176235	0.0080926239176432133	0	1000
-0.085759980508834585	0.011290515627034488	0	1000
-0.044771147843571155	0.0045325843366775002	0	1000
-0.045197659289865903	0.0045887356338318178	0	1000
-0.044999999999999998	1.3877787807814457e-017	0	1000
-0.048485120909990735	1.3877787807814457e-017	0	1000
-0.048420625250572939	0.0025000000000000144	0	1000
-0.059289543766165048	0.0025000000000000178	0	1000
-0.061780700540604791	0.0052100902786911402	0	1000
-0.059342227797749558	1.7347234759768071e-017	0	1000
-0.086500000000000007	2.4286128663675299e-017	0	1000
0.043922425784344479	0.0077447087239450926	0	10
0.04400648967503358	0.0072518181500340357	0	10
0.043641699762246751	0.0071874958461194301	0	10
0.039865623477232576	0.0032500000000000003	0	10
0.039997880384196327	0	0	10
0.044599999999999994	8.6736173798840355e-019	0	10
0.025682289920405225	0.0032499999999999994	0	10
0.02442323227470276	0.004306474806139873	0	10
0.025887110992842514	0	0	10
0.01969615506024416	0.0034729635533386066	0	10
0.019999999999999997	0	0	10
0.043832841497366645	0.0082366259030462428	0	10
0.043468051584579816	0.0081723035991316372	0	10
0.038572997670393336	0.010580845237896028	0	10
0.037585713044106725	0.01368008078172578	0	10
0.041910290887051511	0.015254098392324823	0	10
0.025245023788897526	0.0057298594619541697	0	10
0.024325927173439885	0.0088539134120594904	0	10
0.018793852415718168	0.0068404028665133738	0	10
0.038624733008785966	0.0223	0	10
0.038872305731274003	0.021865585908782847	0	10
0.03855151486569499	0.021680377216187232	0	10
0.0363498667387765	0.016688847273004431	0	10
0.023021892857280679	0.011837861497062573	0	10
0.02147743001385408	0.012400000000000001	0	10
0.017320508075688773	0.0099999999999999985	0	10
0.038372305731273995	0.022731611312567283	0	10
0.038051514865694983	0.022546402619971668	0	10
0.032627899067688731	0.023135484383457229	0	10
0.030640154004851174	0.025710141924685674	0	10
0.034165582163106417	0.02866832739201965	0	10
0.021762835211578218	0.014018613309077298	0	10
0.019830677524471225	0.016639914196779376	0	10
0.015320888862379563	0.012855752193730786	0	10
0.028668327392019653	0.034165582163106417	0	10
0.029049548022190314	0.033842041305253125	0	10
0.028811448316576907	0.03355828512569272	0	10
0.028449779604726232	0.028114773263730589	0	10
0.017584715748615712	0.01899790218935065	0	10
0.015941132720226174	0.018997902189350654	0	10
0.012855752193730785	0.015320888862379558	0	10
0.028283503579071338	0.034484828914939661	0	10
0.028045403873457928	0.034201072735379263	0	10
0.02274739430091571	0.032899642668988732	0	10
0.019998940192098167	0.034639180510245296	0	10
0.0223	0.038624733008785953	0	10
0.015655727522502036	0.02061651549842795	0	10
0.012943555496421261	0.022418895750389019	0	10
0.01	0.017320508075688773	0	10
0.01525409839232483	0.041910290887051518	0	10
0.015722986095962246	0.041736647064973702	0	10
0.015596295888788823	0.041388568581498697	0	10
0.017118229176316866	0.036149642668988735	0	10
0.010026562397903191	0.023866515498427953	0	10
0.0084820995544765878	0.023304376995490528	0	10
0.0068404028665133764	0.018793852415718165	0	10
0.014783293475176339	0.042078667208299371	0	10
0.014656603268002916	0.041730588724824359	0	10
0.01012321806566711	0.038695618501626609	0	10
0.0069455590392555593	0.03939022270641146	0	10
0.0077447087239450995	0.043922425784344479	0	10
0.0076603080402818206	0.024727761651304823	0	10
0.0044952496489686694	0.025493827608838872	0	10
0.0034729635533386101	0.01969615506024416	0	10
4.3368086899420177e-018	0.044599999999999994	0	10
0.00050000000000000478	0.044597197221350131	0	10
0.00050000000000000391	0.044226779836158907	0	10
0.0037219676710877579	0.039824331656461667	0	10
0.0012590576457024672	0.025856474806139874	0	10
1.7347234759768071e-018	0.024799999999999999	0	10
1.7347234759768071e-018	0.02	0	10
-0.00049999999999999697	0.044597197221350131	0	10
-0.00049999999999999611	0.044226779836158907	0	10
-0.0037219676710877536	0.03982433165646166	0	10
-0.0069455590392555472	0.03939022270641146	0	10
-0.0077447087239450882	0.043922425784344472	0	10
-0.0012590576457024629	0.025856474806139867	0	10
-0.004495249648968659	0.025493827608838868	0	10
-0.0034729635533386049	0.01969615506024416	0	10
-0.015254098392324823	0.041910290887051511	0	10
-0.014783293475176332	0.042078667208299371	0	10
-0.014656603268002909	0.041730588724824366	0	10
-0.010123218065667107	0.038695618501626616	0	10
-0.0076603080402818154	0.024727761651304827	0	10
-0.0084820995544765826	0.023304376995490528	0	10
-0.0068404028665133738	0.018793852415718168	0	10
-0.015722986095962239	0.041736647064973702	0	10
-0.015596295888788816	0.041388568581498697	0	10
-0.017118229176316859	0.036149642668988728	0	10
-0.01999894019209816	0.034639180510245303	0	10
-0.022299999999999993	0.038624733008785959	0	10
-0.010026562397903185	0.02386651549842795	0	10
-0.012943555496421255	0.022418895750389019	0	10
-0.0099999999999999985	0.017320508075688773	0	10
-0.028668327392019643	0.034165582163106424	0	10
-0.028283503579071327	0.034484828914939675	0	10
-0.028045403873457921	0.03420107273537927	0	10
-0.022747394300915703	0.032899642668988739	0	10
-0.015655727522502032	0.020616515498427957	0	10
-0.015941132720226171	0.018997902189350657	0	10
-0.012855752193730781	0.015320888862379561	0	10
-0.0290495480221903	0.033842041305253132	0	10
-0.028811448316576897	0.033558285125692727	0	10
-0.028449779604726222	0.028114773263730592	0	10
-0.030640154004851164	0.025710141924685685	0	10
-0.034165582163106403	0.02866832739201966	0	10
-0.017584715748615705	0.018997902189350657	0	10
-0.019830677524471214	0.016639914196779383	0	10
-0.015320888862379558	0.01285575219373079	0	10
-0.038624733008785953	0.022300000000000007	0	10
-0.038372305731273988	0.022731611312567294	0	10
-0.038051514865694983	0.022546402619971682	0	10
-0.032627899067688731	0.023135484383457236	0	10
-0.021762835211578214	0.014018613309077303	0	10
-0.021477430013854076	0.012400000000000005	0	10
-0.01732050807568877	0.010000000000000004	0	10
-0.038872305731273989	0.021865585908782854	0	10
-0.038551514865694976	0.021680377216187239	0	10
-0.036349866738776486	0.016688847273004438	0	10
-0.037585713044106725	0.013680080781725791	0	10
-0.041910290887051511	0.015254098392324835	0	10
-0.023021892857280676	0.011837861497062577	0	10
-0.024325927173439881	0.0088539134120594973	0	10
-0.018793852415718165	0.006840402866513379	0	10
-0.043922425784344472	0.0077447087239451004	0	10
-0.043832841497366645	0.0082366259030462515	0	10
-0.043468051584579823	0.0081723035991316459	0	10
-0.038572997670393336	0.010580845237896035	0	10
-0.025245023788897529	0.0057298594619541749	0	10
-0.024423232274702757	0.0043064748061398764	0	10
-0.01969615506024416	0.0034729635533386101	0	10
-0.044006489675033574	0.0072518181500340444	0	10
-0.043641699762246744	0.0071874958461194387	0	10
-0.039865623477232569	0.0032500000000000046	0	10
-0.039997880384196327	8.6736173798840355e-018	0	10
-0.044599999999999994	8.6736173798840355e-018	0	10
-0.025682289920405221	0.0032500000000000038	0	10
-0.025887110992842518	6.9388939039072284e-018	0	10
-0.02	3.4694469519536142e-018	0	10
0	0	0	10
0.044839999999999998	0	0	1000
-0.044839999999999998	5.4913162473767312e-018	0	1000
0.044760000000000001	0	0	10
-0.044760000000000001	5.4815190729835532e-018	0	10
[NumSegments] = 192
1	2	-1	0	0	1000
3	0	-1	0	1	1000
4	5	-1	2	0	1000
6	7	-1	0	0	1000
5	10	-1	3	0	1000
10	11	-1	4	0	1000
12	9	-1	0	1	1000
13	14	-1	0	0	1000
15	16	-1	0	1	1000
17	18	-1	0	0	1000
16	20	-1	0	1	1000